 # Hcp Zr with box vectors H1=[2-1-10] H2=[-12-10] H3=[0001].
 CRYSTAL
 PRIMVEC
      3.23200000        0.00000000        0.00000000
     -1.61600000        2.79899411        0.00000000
      0.00000000        0.00000000        5.18089600
 CONVVEC
      3.23200000        0.00000000        0.00000000
     -1.61600000        2.79899411        0.00000000
      0.00000000        0.00000000        5.18089600
 PRIMCOORD
        2 1
40        0.00000000        0.00000000        0.00000000
40        0.00000000        1.86599607        2.59044800
